[General]
network = simulations.BankingNetwork
sim-time-limit = 600s
ned-path = .;../src

# Logging
cmdenv-express-mode = false
**.cmdenv-log-level = info

# Display
**.displayString = ""
